************************************************************************
* auCdl Netlist:
* 
* Library Name:  filter_verif
* Top Cell Name: filter_top
* View Name:     schematic
* Netlisted on:  Mar  5 18:19:56 2022
************************************************************************

*.BIPOLAR
*.RESI = 2000 
*.RESVAL
*.CAPVAL
*.DIOPERI
*.DIOAREA
*.EQUATION
*.LDD
*.SCALE METER
.PARAM

*.GLOBAL vdd5!
+        gnd!

*.PIN vdd5!
*+    gnd!

************************************************************************
* Library Name: GATES_HD5V
* Cell Name:    invrhdv5
* View Name:    schematic
************************************************************************

.SUBCKT invrhdv5 in out inh_ground_gnd inh_power_vdd5
*.PININFO in:I out:O inh_ground_gnd:B inh_power_vdd5:B
MMN1 out in inh_ground_gnd inh_ground_gnd NE5 W=GT_PDW L=GT_PDL M=1.0 
+ AD=sx*(GT_PDW) AS=sx*(GT_PDW) PD=2*sx+(GT_PDW) PS=2*sx+(GT_PDW) 
+ NRD=lc/(GT_PDW) NRS=lc/(GT_PDW)
MMP1 out in inh_power_vdd5 inh_power_vdd5 PE5 W=GT_PUW L=GT_PUL M=1.0 
+ AD=sx*(GT_PUW) AS=sx*(GT_PUW) PD=2*sx+(GT_PUW) PS=2*sx+(GT_PUW) 
+ NRD=lc/(GT_PUW) NRS=lc/(GT_PUW)
.ENDS

************************************************************************
* Library Name: D_CELLS_5V
* Cell Name:    DLY4_5VX1
* View Name:    cmos_sch
************************************************************************

.SUBCKT DLY4_5VX1 A Q inh_ground_gnd inh_power_vdd5
*.PININFO A:I Q:O inh_ground_gnd:B inh_power_vdd5:B
Xin_2 net35 Q inh_ground_gnd inh_power_vdd5 / invrhdv5 GT_PUL=500.00n 
+ GT_PUW=1.41u lc=2.7e-07 sx=4.8e-07 GT_PDL=500.00n GT_PDW=890.00n
Xin_1 A net47 inh_ground_gnd inh_power_vdd5 / invrhdv5 GT_PUL=500.00n 
+ GT_PUW=700.00n lc=2.7e-07 sx=4.8e-07 GT_PDL=500.00n GT_PDW=420.00n
MM6 net31 net47 inh_ground_gnd inh_ground_gnd NE5 W=420.0n L=1.17u M=1.0 
+ AD=2.016e-13 AS=2.016e-13 PD=1.8e-06 PS=1.8e-06 NRD=0.642857 NRS=0.642857
MM10 net051 net039 inh_ground_gnd inh_ground_gnd NE5 W=420.0n L=2.915u M=1.0 
+ AD=2.016e-13 AS=2.016e-13 PD=1.8e-06 PS=1.8e-06 NRD=1.28571 NRS=1.28571
MM5 net055 net47 net31 inh_ground_gnd NE5 W=420.0n L=1.17u M=1.0 AD=2.016e-13 
+ AS=2.016e-13 PD=1.8e-06 PS=1.8e-06 NRD=0.642857 NRS=0.642857
MM9 net35 net039 net051 inh_ground_gnd NE5 W=420.0n L=1.815u M=1.0 
+ AD=2.016e-13 AS=2.016e-13 PD=1.8e-06 PS=1.8e-06 NRD=1.28571 NRS=1.28571
MM4 net039 net47 net055 inh_ground_gnd NE5 W=420.0n L=1.145u M=1.0 
+ AD=2.016e-13 AS=2.016e-13 PD=1.8e-06 PS=1.8e-06 NRD=0.642857 NRS=0.642857
MM3 net039 net47 net086 inh_power_vdd5 PE5 W=420.0n L=900n M=1.0 AD=2.016e-13 
+ AS=2.016e-13 PD=1.8e-06 PS=1.8e-06 NRD=0.642857 NRS=0.642857
MM7 net082 net039 inh_power_vdd5 inh_power_vdd5 PE5 W=420.0n L=2.4u M=1.0 
+ AD=2.016e-13 AS=2.016e-13 PD=1.8e-06 PS=1.8e-06 NRD=0.642857 NRS=0.642857
MM2 net086 net47 net084 inh_power_vdd5 PE5 W=420.0n L=900n M=1.0 AD=2.016e-13 
+ AS=2.016e-13 PD=1.8e-06 PS=1.8e-06 NRD=0.642857 NRS=0.642857
MM8 net35 net039 net082 inh_power_vdd5 PE5 W=420.0n L=2.4u M=1.0 AD=2.016e-13 
+ AS=2.016e-13 PD=1.8e-06 PS=1.8e-06 NRD=0.642857 NRS=0.642857
MM1 net084 net47 inh_power_vdd5 inh_power_vdd5 PE5 W=420.0n L=900n M=1.0 
+ AD=2.016e-13 AS=2.016e-13 PD=1.8e-06 PS=1.8e-06 NRD=0.642857 NRS=0.642857
.ENDS

************************************************************************
* Library Name: D_CELLS_5V
* Cell Name:    DLY2_5VX1
* View Name:    cmos_sch
************************************************************************

.SUBCKT DLY2_5VX1 A Q inh_ground_gnd inh_power_vdd5
*.PININFO A:I Q:O inh_ground_gnd:B inh_power_vdd5:B
Xin_2 net35 Q inh_ground_gnd inh_power_vdd5 / invrhdv5 GT_PUL=500.00n 
+ GT_PUW=1.41u lc=2.7e-07 sx=4.8e-07 GT_PDL=500.00n GT_PDW=890.00n
Xin_1 A net47 inh_ground_gnd inh_power_vdd5 / invrhdv5 GT_PUL=500.00n 
+ GT_PUW=700.00n lc=2.7e-07 sx=4.8e-07 GT_PDL=500.00n GT_PDW=420.00n
MM4 net31 net47 inh_ground_gnd inh_ground_gnd NE5 W=420.0n L=890.0n M=1.0 
+ AD=2.016e-13 AS=2.016e-13 PD=1.8e-06 PS=1.8e-06 NRD=0.642857 NRS=0.642857
MM8 net035 net039 inh_ground_gnd inh_ground_gnd NE5 W=420.0n L=1.26u M=1.0 
+ AD=2.016e-13 AS=2.016e-13 PD=1.8e-06 PS=1.8e-06 NRD=0.642857 NRS=0.642857
MM7 net35 net039 net035 inh_ground_gnd NE5 W=420.0n L=1.26u M=1.0 AD=2.016e-13 
+ AS=2.016e-13 PD=1.8e-06 PS=1.8e-06 NRD=0.642857 NRS=0.642857
MM3 net039 net47 net31 inh_ground_gnd NE5 W=420.0n L=890.0n M=1.0 AD=2.016e-13 
+ AS=2.016e-13 PD=1.8e-06 PS=1.8e-06 NRD=0.642857 NRS=0.642857
MM5 net080 net039 inh_power_vdd5 inh_power_vdd5 PE5 W=420.0n L=1.42u M=1.0 
+ AD=2.016e-13 AS=2.016e-13 PD=1.8e-06 PS=1.8e-06 NRD=0.642857 NRS=0.642857
MM2 net039 net47 net084 inh_power_vdd5 PE5 W=420.0n L=925.00n M=1.0 
+ AD=2.016e-13 AS=2.016e-13 PD=1.8e-06 PS=1.8e-06 NRD=0.642857 NRS=0.642857
MM6 net35 net039 net080 inh_power_vdd5 PE5 W=420.0n L=1.26u M=1.0 AD=2.016e-13 
+ AS=2.016e-13 PD=1.8e-06 PS=1.8e-06 NRD=0.642857 NRS=0.642857
MM1 net084 net47 inh_power_vdd5 inh_power_vdd5 PE5 W=420.0n L=890.0n M=1.0 
+ AD=2.016e-13 AS=2.016e-13 PD=1.8e-06 PS=1.8e-06 NRD=0.642857 NRS=0.642857
.ENDS

************************************************************************
* Library Name: D_CELLS_5V
* Cell Name:    BU_5VX1
* View Name:    cmos_sch
************************************************************************

.SUBCKT BU_5VX1 A Q inh_ground_gnd inh_power_vdd5
*.PININFO A:I Q:O inh_ground_gnd:B inh_power_vdd5:B
Xin_1 A net9 inh_ground_gnd inh_power_vdd5 / invrhdv5 GT_PUL=500.00n 
+ GT_PUW=1.045u lc=2.7e-07 sx=4.8e-07 GT_PDL=500.00n GT_PDW=420.00n
Xin_2 net9 Q inh_ground_gnd inh_power_vdd5 / invrhdv5 GT_PUL=500.00n 
+ GT_PUW=1.41u lc=2.7e-07 sx=4.8e-07 GT_PDL=500.00n GT_PDW=660.0n
.ENDS

************************************************************************
* Library Name: D_CELLS_5V
* Cell Name:    BU_5VX0
* View Name:    cmos_sch
************************************************************************

.SUBCKT BU_5VX0 A Q inh_ground_gnd inh_power_vdd5
*.PININFO A:I Q:O inh_ground_gnd:B inh_power_vdd5:B
Xin_1 A net9 inh_ground_gnd inh_power_vdd5 / invrhdv5 GT_PUL=500.00n 
+ GT_PUW=1.12u lc=2.7e-07 sx=4.8e-07 GT_PDL=500.00n GT_PDW=420.00n
Xin_2 net9 Q inh_ground_gnd inh_power_vdd5 / invrhdv5 GT_PUL=500.00n 
+ GT_PUW=940.00n lc=2.7e-07 sx=4.8e-07 GT_PDL=500.00n GT_PDW=420.00n
.ENDS

************************************************************************
* Library Name: D_CELLS_5V
* Cell Name:    DLY1_5VX1
* View Name:    cmos_sch
************************************************************************

.SUBCKT DLY1_5VX1 A Q inh_ground_gnd inh_power_vdd5
*.PININFO A:I Q:O inh_ground_gnd:B inh_power_vdd5:B
Xin_2 net35 Q inh_ground_gnd inh_power_vdd5 / invrhdv5 GT_PUL=500.00n 
+ GT_PUW=1.41u lc=2.7e-07 sx=4.8e-07 GT_PDL=500.00n GT_PDW=890.00n
Xin_1 A net47 inh_ground_gnd inh_power_vdd5 / invrhdv5 GT_PUL=500.00n 
+ GT_PUW=670.00n lc=2.7e-07 sx=4.8e-07 GT_PDL=500.00n GT_PDW=420.00n
MM2 net31 net47 inh_ground_gnd inh_ground_gnd NE5 W=420.0n L=940.0n M=1.0 
+ AD=2.016e-13 AS=2.016e-13 PD=1.8e-06 PS=1.8e-06 NRD=0.642857 NRS=0.642857
MM4 net35 net31 inh_ground_gnd inh_ground_gnd NE5 W=420.0n L=1.24u M=1.0 
+ AD=2.016e-13 AS=2.016e-13 PD=1.8e-06 PS=1.8e-06 NRD=0.642857 NRS=0.642857
MM3 net35 net31 inh_power_vdd5 inh_power_vdd5 PE5 W=420.0n L=940.0n M=1.0 
+ AD=2.016e-13 AS=2.016e-13 PD=1.8e-06 PS=1.8e-06 NRD=0.642857 NRS=0.642857
MM1 net31 net47 inh_power_vdd5 inh_power_vdd5 PE5 W=420.0n L=1.24u M=1.0 
+ AD=2.016e-13 AS=2.016e-13 PD=1.8e-06 PS=1.8e-06 NRD=0.642857 NRS=0.642857
.ENDS

************************************************************************
* Library Name: D_CELLS_5V
* Cell Name:    BU_5VX2
* View Name:    cmos_sch
************************************************************************

.SUBCKT BU_5VX2 A Q inh_ground_gnd inh_power_vdd5
*.PININFO A:I Q:O inh_ground_gnd:B inh_power_vdd5:B
Xin_1 A net9 inh_ground_gnd inh_power_vdd5 / invrhdv5 GT_PUL=500.00n 
+ GT_PUW=1.41u lc=2.7e-07 sx=4.8e-07 GT_PDL=500.00n GT_PDW=540.00n
Xin_2 net9 Q inh_ground_gnd inh_power_vdd5 / invrhdv5 GT_PUL=500.00n 
+ GT_PUW=2.82u lc=2.7e-07 sx=4.8e-07 GT_PDL=500.00n GT_PDW=1.32u
.ENDS

************************************************************************
* Library Name: D_CELLS_5V
* Cell Name:    BU_5VX12
* View Name:    cmos_sch
************************************************************************

.SUBCKT BU_5VX12 A Q inh_ground_gnd inh_power_vdd5
*.PININFO A:I Q:O inh_ground_gnd:B inh_power_vdd5:B
Xin_1 A net9 inh_ground_gnd inh_power_vdd5 / invrhdv5 GT_PUL=500.00n 
+ GT_PUW=8.82u lc=2.7e-07 sx=4.8e-07 GT_PDL=500.00n GT_PDW=3.01u
Xin_2 net9 Q inh_ground_gnd inh_power_vdd5 / invrhdv5 GT_PUL=500.00n 
+ GT_PUW=17.64u lc=2.7e-07 sx=4.8e-07 GT_PDL=500.00n GT_PDW=8.0u
.ENDS

************************************************************************
* Library Name: D_CELLS_5V
* Cell Name:    DLY8_5VX1
* View Name:    cmos_sch
************************************************************************

.SUBCKT DLY8_5VX1 A Q inh_ground_gnd inh_power_vdd5
*.PININFO A:I Q:O inh_ground_gnd:B inh_power_vdd5:B
Xin_2 net051 Q inh_ground_gnd inh_power_vdd5 / invrhdv5 GT_PUL=500.00n 
+ GT_PUW=1.41u lc=2.7e-07 sx=4.8e-07 GT_PDL=500.00n GT_PDW=890.00n
Xin_1 A net47 inh_ground_gnd inh_power_vdd5 / invrhdv5 GT_PUL=500.00n 
+ GT_PUW=670.00n lc=2.7e-07 sx=4.8e-07 GT_PDL=500.00n GT_PDW=420.00n
MM4 net31 net47 inh_ground_gnd inh_ground_gnd NE5 W=420.0n L=2.25u M=1.0 
+ AD=2.016e-13 AS=2.016e-13 PD=1.8e-06 PS=1.8e-06 NRD=0.642857 NRS=0.642857
MM8 net035 net039 inh_ground_gnd inh_ground_gnd NE5 W=420.0n L=1.85u M=1.0 
+ AD=2.016e-13 AS=2.016e-13 PD=1.8e-06 PS=1.8e-06 NRD=0.642857 NRS=0.642857
MM12 net043 net35 inh_ground_gnd inh_ground_gnd NE5 W=420.0n L=1.78u M=1.0 
+ AD=2.016e-13 AS=2.016e-13 PD=1.8e-06 PS=1.8e-06 NRD=0.642857 NRS=0.642857
MM16 net047 net055 inh_ground_gnd inh_ground_gnd NE5 W=420.0n L=1.04u M=1.0 
+ AD=2.016e-13 AS=2.016e-13 PD=1.8e-06 PS=1.8e-06 NRD=0.642857 NRS=0.642857
MM15 net051 net055 net047 inh_ground_gnd NE5 W=420.0n L=1.04u M=1.0 
+ AD=2.016e-13 AS=2.016e-13 PD=1.8e-06 PS=1.8e-06 NRD=0.642857 NRS=0.642857
MM11 net055 net35 net043 inh_ground_gnd NE5 W=420.0n L=1.78u M=1.0 
+ AD=2.016e-13 AS=2.016e-13 PD=1.8e-06 PS=1.8e-06 NRD=0.642857 NRS=0.642857
MM7 net35 net039 net035 inh_ground_gnd NE5 W=420.0n L=1.85u M=1.0 AD=2.016e-13 
+ AS=2.016e-13 PD=1.8e-06 PS=1.8e-06 NRD=0.642857 NRS=0.642857
MM3 net039 net47 net31 inh_ground_gnd NE5 W=420.0n L=2.25u M=1.0 AD=2.016e-13 
+ AS=2.016e-13 PD=1.8e-06 PS=1.8e-06 NRD=0.642857 NRS=0.642857
MM5 net080 net039 inh_power_vdd5 inh_power_vdd5 PE5 W=420.0n L=2.425u M=1.0 
+ AD=2.016e-13 AS=2.016e-13 PD=1.8e-06 PS=1.8e-06 NRD=0.642857 NRS=0.642857
MM13 net082 net055 inh_power_vdd5 inh_power_vdd5 PE5 W=420.0n L=1.34u M=1.0 
+ AD=2.016e-13 AS=2.016e-13 PD=1.8e-06 PS=1.8e-06 NRD=0.642857 NRS=0.642857
MM10 net055 net35 net078 inh_power_vdd5 PE5 W=420.0n L=1.57u M=1.0 
+ AD=2.016e-13 AS=2.016e-13 PD=1.8e-06 PS=1.8e-06 NRD=0.642857 NRS=0.642857
MM14 net051 net055 net082 inh_power_vdd5 PE5 W=420.0n L=1.34u M=1.0 
+ AD=2.016e-13 AS=2.016e-13 PD=1.8e-06 PS=1.8e-06 NRD=0.642857 NRS=0.642857
MM9 net078 net35 inh_power_vdd5 inh_power_vdd5 PE5 W=420.0n L=1.57u M=1.0 
+ AD=2.016e-13 AS=2.016e-13 PD=1.8e-06 PS=1.8e-06 NRD=0.642857 NRS=0.642857
MM2 net039 net47 net084 inh_power_vdd5 PE5 W=420.0n L=1.78u M=1.0 AD=2.016e-13 
+ AS=2.016e-13 PD=1.8e-06 PS=1.8e-06 NRD=0.642857 NRS=0.642857
MM6 net35 net039 net080 inh_power_vdd5 PE5 W=420.0n L=2.425u M=1.0 
+ AD=2.016e-13 AS=2.016e-13 PD=1.8e-06 PS=1.8e-06 NRD=0.642857 NRS=0.642857
MM1 net084 net47 inh_power_vdd5 inh_power_vdd5 PE5 W=420.0n L=1.78u M=1.0 
+ AD=2.016e-13 AS=2.016e-13 PD=1.8e-06 PS=1.8e-06 NRD=0.642857 NRS=0.642857
.ENDS

************************************************************************
* Library Name: GATES_HD5V
* Cell Name:    nor2hdv5
* View Name:    schematic
************************************************************************

.SUBCKT nor2hdv5 a b out inh_ground_gnd inh_power_vdd5
*.PININFO a:I b:I out:O inh_ground_gnd:B inh_power_vdd5:B
MMN1 out b inh_ground_gnd inh_ground_gnd NE5 W=GT_PDW L=GT_PDL M=1.0 AD=-1.0 
+ AS=-1.0 PD=-1.0 PS=-1.0 NRD=-1.0 NRS=-1.0
MMN2 out a inh_ground_gnd inh_ground_gnd NE5 W=GT_PDW L=GT_PDL M=1.0 AD=-1.0 
+ AS=-1.0 PD=-1.0 PS=-1.0 NRD=-1.0 NRS=-1.0
MMP1 out a net32 inh_power_vdd5 PE5 W=GT_PUW L=GT_PUL M=1.0 AD=-1.0 AS=-1.0 
+ PD=-1.0 PS=-1.0 NRD=-1.0 NRS=-1.0
MMP2 net32 b inh_power_vdd5 inh_power_vdd5 PE5 W=GT_PUW L=GT_PUL M=1.0 AD=-1.0 
+ AS=-1.0 PD=-1.0 PS=-1.0 NRD=-1.0 NRS=-1.0
.ENDS

************************************************************************
* Library Name: D_CELLS_5V
* Cell Name:    NO2I1_5VX1
* View Name:    cmos_sch
************************************************************************

.SUBCKT NO2I1_5VX1 AN B Q inh_ground_gnd inh_power_vdd5
*.PININFO AN:I B:I Q:O inh_ground_gnd:B inh_power_vdd5:B
Xin_1 AN net12 inh_ground_gnd inh_power_vdd5 / invrhdv5 GT_PUL=500.00n 
+ GT_PUW=720.0n lc=2.7e-07 sx=4.8e-07 GT_PDL=500.00n GT_PDW=420.00n
Xno2_1 net12 B Q inh_ground_gnd inh_power_vdd5 / nor2hdv5 GT_PUL=500.00n 
+ GT_PUW=1.41u GT_PDL=500.00n GT_PDW=890.00n
.ENDS

************************************************************************
* Library Name: D_CELLS_5V
* Cell Name:    DFRQ_5VX1
* View Name:    cmos_sch
************************************************************************

.SUBCKT DFRQ_5VX1 C D Q inh_ground_gnd inh_power_vdd5
*.PININFO C:I D:I Q:O inh_ground_gnd:B inh_power_vdd5:B
MM18 MQIB CIB net124 inh_ground_gnd NE5 W=700n L=500n M=1.0 AD=3.36e-13 
+ AS=3.36e-13 PD=2.36e-06 PS=2.36e-06 NRD=0.385714 NRS=0.385714
MM17 MQI MQIB inh_ground_gnd inh_ground_gnd NE5 W=420.0n L=500n M=1.0 
+ AD=2.016e-13 AS=2.016e-13 PD=1.8e-06 PS=1.8e-06 NRD=0.642857 NRS=0.642857
MM15 net124 D inh_ground_gnd inh_ground_gnd NE5 W=700n L=500n M=1.0 
+ AD=3.36e-13 AS=3.36e-13 PD=2.36e-06 PS=2.36e-06 NRD=0.385714 NRS=0.385714
MM46 SQIB CI net132 inh_ground_gnd NE5 W=720.0n L=500n M=1.0 AD=3.456e-13 
+ AS=3.456e-13 PD=2.4e-06 PS=2.4e-06 NRD=0.375 NRS=0.375
MM19 MQIB CI net120 inh_ground_gnd NE5 W=420.0n L=500n M=1.0 AD=2.016e-13 
+ AS=2.016e-13 PD=1.8e-06 PS=1.8e-06 NRD=0.642857 NRS=0.642857
MM51 SQIB CIB net140 inh_ground_gnd NE5 W=420.0n L=500n M=1.0 AD=2.016e-13 
+ AS=2.016e-13 PD=1.8e-06 PS=1.8e-06 NRD=0.642857 NRS=0.642857
MM50 net140 net142 inh_ground_gnd inh_ground_gnd NE5 W=420.0n L=500n M=1.0 
+ AD=2.016e-13 AS=2.016e-13 PD=1.8e-06 PS=1.8e-06 NRD=0.642857 NRS=0.642857
MM49 net142 SQIB inh_ground_gnd inh_ground_gnd NE5 W=420.0n L=500n M=1.0 
+ AD=2.016e-13 AS=2.016e-13 PD=1.8e-06 PS=1.8e-06 NRD=0.642857 NRS=0.642857
MM47 net132 MQI inh_ground_gnd inh_ground_gnd NE5 W=720.0n L=500n M=1.0 
+ AD=3.456e-13 AS=3.456e-13 PD=2.4e-06 PS=2.4e-06 NRD=0.375 NRS=0.375
MM61 net120 MQI inh_ground_gnd inh_ground_gnd NE5 W=420.0n L=500n M=1.0 
+ AD=2.016e-13 AS=2.016e-13 PD=1.8e-06 PS=1.8e-06 NRD=0.642857 NRS=0.642857
MM24 MQIB CI net162 inh_power_vdd5 PE5 W=1.1u L=500n M=1.0 AD=5.28e-13 
+ AS=5.28e-13 PD=3.16e-06 PS=3.16e-06 NRD=0.245455 NRS=0.245455
MM56 MQI MQIB inh_power_vdd5 inh_power_vdd5 PE5 W=720.0n L=500n M=1.0 
+ AD=3.456e-13 AS=3.456e-13 PD=2.4e-06 PS=2.4e-06 NRD=0.375 NRS=0.375
MM30 net170 MQI inh_power_vdd5 inh_power_vdd5 PE5 W=1.15u L=500n M=1.0 
+ AD=5.52e-13 AS=5.52e-13 PD=3.26e-06 PS=3.26e-06 NRD=0.234783 NRS=0.234783
MM23 net162 D inh_power_vdd5 inh_power_vdd5 PE5 W=1.1u L=500n M=1.0 
+ AD=5.28e-13 AS=5.28e-13 PD=3.16e-06 PS=3.16e-06 NRD=0.245455 NRS=0.245455
MM59 net142 SQIB inh_power_vdd5 inh_power_vdd5 PE5 W=720.0n L=500n M=1.0 
+ AD=3.456e-13 AS=3.456e-13 PD=2.4e-06 PS=2.4e-06 NRD=0.375 NRS=0.375
MM36 net166 net142 inh_power_vdd5 inh_power_vdd5 PE5 W=420.0n L=500n M=1.0 
+ AD=2.016e-13 AS=2.016e-13 PD=1.8e-06 PS=1.8e-06 NRD=0.642857 NRS=0.642857
MM35 SQIB CI net166 inh_power_vdd5 PE5 W=420.0n L=500n M=1.0 AD=2.016e-13 
+ AS=2.016e-13 PD=1.8e-06 PS=1.8e-06 NRD=0.642857 NRS=0.642857
MM34 MQIB CIB net174 inh_power_vdd5 PE5 W=420.0n L=500n M=1.0 AD=2.016e-13 
+ AS=2.016e-13 PD=1.8e-06 PS=1.8e-06 NRD=0.642857 NRS=0.642857
MM33 SQIB CIB net170 inh_power_vdd5 PE5 W=1.15u L=500n M=1.0 AD=5.52e-13 
+ AS=5.52e-13 PD=3.26e-06 PS=3.26e-06 NRD=0.234783 NRS=0.234783
MM28 net174 MQI inh_power_vdd5 inh_power_vdd5 PE5 W=420.0n L=500n M=1.0 
+ AD=2.016e-13 AS=2.016e-13 PD=1.8e-06 PS=1.8e-06 NRD=0.642857 NRS=0.642857
Xin_3 SQIB Q inh_ground_gnd inh_power_vdd5 / invrhdv5 GT_PUL=500.00n 
+ GT_PUW=1.41u lc=2.7e-07 sx=4.8e-07 GT_PDL=500.00n GT_PDW=890.00n
Xin_2 CIB CI inh_ground_gnd inh_power_vdd5 / invrhdv5 GT_PUL=500.00n 
+ GT_PUW=720.00n lc=2.7e-07 sx=4.8e-07 GT_PDL=500.00n GT_PDW=420.00n
Xin_1 C CIB inh_ground_gnd inh_power_vdd5 / invrhdv5 GT_PUL=500.00n 
+ GT_PUW=720.00n lc=2.7e-07 sx=4.8e-07 GT_PDL=500.00n GT_PDW=420.00n
.ENDS

************************************************************************
* Library Name: D_CELLS_5V
* Cell Name:    IN_5VX3
* View Name:    cmos_sch
************************************************************************

.SUBCKT IN_5VX3 A Q inh_ground_gnd inh_power_vdd5
*.PININFO A:I Q:O inh_ground_gnd:B inh_power_vdd5:B
Xin_1 A Q inh_ground_gnd inh_power_vdd5 / invrhdv5 GT_PUL=500.00n GT_PUW=4.23u 
+ lc=2.7e-07 sx=4.8e-07 GT_PDL=500.00n GT_PDW=1.98u
.ENDS

************************************************************************
* Library Name: D_CELLS_5V
* Cell Name:    IN_5VX2
* View Name:    cmos_sch
************************************************************************

.SUBCKT IN_5VX2 A Q inh_ground_gnd inh_power_vdd5
*.PININFO A:I Q:O inh_ground_gnd:B inh_power_vdd5:B
Xin_1 A Q inh_ground_gnd inh_power_vdd5 / invrhdv5 GT_PUL=500.00n GT_PUW=2.82u 
+ lc=2.7e-07 sx=4.8e-07 GT_PDL=500.00n GT_PDW=1.32u
.ENDS

************************************************************************
* Library Name: D_CELLS_5V
* Cell Name:    IN_5VX1
* View Name:    cmos_sch
************************************************************************

.SUBCKT IN_5VX1 A Q inh_ground_gnd inh_power_vdd5
*.PININFO A:I Q:O inh_ground_gnd:B inh_power_vdd5:B
Xin_1 A Q inh_ground_gnd inh_power_vdd5 / invrhdv5 GT_PUL=500.00n GT_PUW=1.41u 
+ lc=2.7e-07 sx=4.8e-07 GT_PDL=500.00n GT_PDW=500.00n
.ENDS

************************************************************************
* Library Name: D_CELLS_5V
* Cell Name:    BU_5VX16
* View Name:    cmos_sch
************************************************************************

.SUBCKT BU_5VX16 A Q inh_ground_gnd inh_power_vdd5
*.PININFO A:I Q:O inh_ground_gnd:B inh_power_vdd5:B
Xin_1 A net9 inh_ground_gnd inh_power_vdd5 / invrhdv5 GT_PUL=500.00n 
+ GT_PUW=11.76u lc=2.7e-07 sx=4.8e-07 GT_PDL=500.00n GT_PDW=4.0u
Xin_2 net9 Q inh_ground_gnd inh_power_vdd5 / invrhdv5 GT_PUL=500.00n 
+ GT_PUW=22.05u lc=2.7e-07 sx=4.8e-07 GT_PDL=500.00n GT_PDW=10.64u
.ENDS

************************************************************************
* Library Name: D_CELLS_5V
* Cell Name:    IN_5VX4
* View Name:    cmos_sch
************************************************************************

.SUBCKT IN_5VX4 A Q inh_ground_gnd inh_power_vdd5
*.PININFO A:I Q:O inh_ground_gnd:B inh_power_vdd5:B
Xin_1 A Q inh_ground_gnd inh_power_vdd5 / invrhdv5 GT_PUL=500.00n GT_PUW=5.8u 
+ lc=2.7e-07 sx=4.8e-07 GT_PDL=500.00n GT_PDW=2.67u
.ENDS

************************************************************************
* Library Name: D_CELLS_5V
* Cell Name:    IN_5VX16
* View Name:    cmos_sch
************************************************************************

.SUBCKT IN_5VX16 A Q inh_ground_gnd inh_power_vdd5
*.PININFO A:I Q:O inh_ground_gnd:B inh_power_vdd5:B
Xin_2 net6 net5 inh_ground_gnd inh_power_vdd5 / invrhdv5 GT_PUL=500.00n 
+ GT_PUW=5.88u lc=2.7e-07 sx=4.8e-07 GT_PDL=500.00n GT_PDW=2.49u
Xin_1 A net6 inh_ground_gnd inh_power_vdd5 / invrhdv5 GT_PUL=500.00n 
+ GT_PUW=2.87u lc=2.7e-07 sx=4.8e-07 GT_PDL=500.00n GT_PDW=1.32u
Xin_3 net5 Q inh_ground_gnd inh_power_vdd5 / invrhdv5 GT_PUL=500.00n 
+ GT_PUW=23.52u lc=2.7e-07 sx=4.8e-07 GT_PDL=500.00n GT_PDW=10.8u
.ENDS

************************************************************************
* Library Name: D_CELLS_5V
* Cell Name:    BU_5VX3
* View Name:    cmos_sch
************************************************************************

.SUBCKT BU_5VX3 A Q inh_ground_gnd inh_power_vdd5
*.PININFO A:I Q:O inh_ground_gnd:B inh_power_vdd5:B
Xin_1 A net9 inh_ground_gnd inh_power_vdd5 / invrhdv5 GT_PUL=500.00n 
+ GT_PUW=2.25u lc=2.7e-07 sx=4.8e-07 GT_PDL=500.00n GT_PDW=890.00n
Xin_2 net9 Q inh_ground_gnd inh_power_vdd5 / invrhdv5 GT_PUL=500.00n 
+ GT_PUW=4.33u lc=2.7e-07 sx=4.8e-07 GT_PDL=500.00n GT_PDW=2.01u
.ENDS

************************************************************************
* Library Name: D_CELLS_5V
* Cell Name:    BU_5VX6
* View Name:    cmos_sch
************************************************************************

.SUBCKT BU_5VX6 A Q inh_ground_gnd inh_power_vdd5
*.PININFO A:I Q:O inh_ground_gnd:B inh_power_vdd5:B
Xin_1 A net9 inh_ground_gnd inh_power_vdd5 / invrhdv5 GT_PUL=500.00n 
+ GT_PUW=4.41u lc=2.7e-07 sx=4.8e-07 GT_PDL=500.00n GT_PDW=1.46u
Xin_2 net9 Q inh_ground_gnd inh_power_vdd5 / invrhdv5 GT_PUL=500.00n 
+ GT_PUW=8.74u lc=2.7e-07 sx=4.8e-07 GT_PDL=500.00n GT_PDW=4.0u
.ENDS

************************************************************************
* Library Name: D_CELLS_5V
* Cell Name:    NO2_5VX1
* View Name:    cmos_sch
************************************************************************

.SUBCKT NO2_5VX1 A B Q inh_ground_gnd inh_power_vdd5
*.PININFO A:I B:I Q:O inh_ground_gnd:B inh_power_vdd5:B
Xno2_1 A B Q inh_ground_gnd inh_power_vdd5 / nor2hdv5 GT_PUL=500.00n 
+ GT_PUW=1.41u GT_PDL=500.00n GT_PDW=890.00n
.ENDS

************************************************************************
* Library Name: GATES_HD5V
* Cell Name:    nor3hdv5
* View Name:    schematic
************************************************************************

.SUBCKT nor3hdv5 a b c out inh_ground_gnd inh_power_vdd5
*.PININFO a:I b:I c:I out:O inh_ground_gnd:B inh_power_vdd5:B
MMP3 net37 c inh_power_vdd5 inh_power_vdd5 PE5 W=GT_PUW L=GT_PUL M=1.0 AD=-1.0 
+ AS=-1.0 PD=-1.0 PS=-1.0 NRD=-1.0 NRS=-1.0
MMP1 out a net32 inh_power_vdd5 PE5 W=GT_PUW L=GT_PUL M=1.0 AD=-1.0 AS=-1.0 
+ PD=-1.0 PS=-1.0 NRD=-1.0 NRS=-1.0
MMP2 net32 b net37 inh_power_vdd5 PE5 W=GT_PUW L=GT_PUL M=1.0 AD=-1.0 AS=-1.0 
+ PD=-1.0 PS=-1.0 NRD=-1.0 NRS=-1.0
MMN1 out a inh_ground_gnd inh_ground_gnd NE5 W=GT_PDW L=GT_PDL M=1.0 AD=-1.0 
+ AS=-1.0 PD=-1.0 PS=-1.0 NRD=-1.0 NRS=-1.0
MMN3 out c inh_ground_gnd inh_ground_gnd NE5 W=GT_PDW L=GT_PDL M=1.0 AD=-1.0 
+ AS=-1.0 PD=-1.0 PS=-1.0 NRD=-1.0 NRS=-1.0
MMN2 out b inh_ground_gnd inh_ground_gnd NE5 W=GT_PDW L=GT_PDL M=1.0 AD=-1.0 
+ AS=-1.0 PD=-1.0 PS=-1.0 NRD=-1.0 NRS=-1.0
.ENDS

************************************************************************
* Library Name: D_CELLS_5V
* Cell Name:    NO3_5VX1
* View Name:    cmos_sch
************************************************************************

.SUBCKT NO3_5VX1 A B C Q inh_ground_gnd inh_power_vdd5
*.PININFO A:I B:I C:I Q:O inh_ground_gnd:B inh_power_vdd5:B
Xno3_1 A B C Q inh_ground_gnd inh_power_vdd5 / nor3hdv5 GT_PDL=500.00n 
+ GT_PDW=890.00n GT_PUL=500.00n GT_PUW=1.41u
.ENDS

************************************************************************
* Library Name: GATES_HD5V
* Cell Name:    nand2hdv5
* View Name:    schematic
************************************************************************

.SUBCKT nand2hdv5 a b out inh_ground_gnd inh_power_vdd5
*.PININFO a:I b:I out:O inh_ground_gnd:B inh_power_vdd5:B
MMN1 out a net25 inh_ground_gnd NE5 W=GT_PDW L=GT_PDL M=1.0 AD=sx*(GT_PDW) 
+ AS=sx*(GT_PDW) PD=2*sx+(GT_PDW) PS=2*sx+(GT_PDW) NRD=lc/(GT_PDW) 
+ NRS=lc/(GT_PDW)
MMN2 net25 b inh_ground_gnd inh_ground_gnd NE5 W=GT_PDW L=GT_PDL M=1.0 
+ AD=sx*(GT_PDW) AS=sx*(GT_PDW) PD=2*sx+(GT_PDW) PS=2*sx+(GT_PDW) 
+ NRD=lc/(GT_PDW) NRS=lc/(GT_PDW)
MMP1 out a inh_power_vdd5 inh_power_vdd5 PE5 W=GT_PUW L=GT_PUL M=1.0 
+ AD=sx*(GT_PUW) AS=sx*(GT_PUW) PD=2*sx+(GT_PUW) PS=2*sx+(GT_PUW) 
+ NRD=lc/(GT_PUW) NRS=lc/(GT_PUW)
MMP2 out b inh_power_vdd5 inh_power_vdd5 PE5 W=GT_PUW L=GT_PUL M=1.0 
+ AD=sx*(GT_PUW) AS=sx*(GT_PUW) PD=2*sx+(GT_PUW) PS=2*sx+(GT_PUW) 
+ NRD=lc/(GT_PUW) NRS=lc/(GT_PUW)
.ENDS

************************************************************************
* Library Name: D_CELLS_5V
* Cell Name:    NA2I1_5VX1
* View Name:    cmos_sch
************************************************************************

.SUBCKT NA2I1_5VX1 AN B Q inh_ground_gnd inh_power_vdd5
*.PININFO AN:I B:I Q:O inh_ground_gnd:B inh_power_vdd5:B
Xna2_1 net4 B Q inh_ground_gnd inh_power_vdd5 / nand2hdv5 GT_PUL=500.00n 
+ GT_PUW=1.1u lc=2.7e-07 sx=4.8e-07 GT_PDL=500.00n GT_PDW=890.0n
Xin_1 AN net4 inh_ground_gnd inh_power_vdd5 / invrhdv5 GT_PUL=500.00n 
+ GT_PUW=720.0n lc=2.7e-07 sx=4.8e-07 GT_PDL=500.00n GT_PDW=420.00n
.ENDS

************************************************************************
* Library Name: GATES_HD5V
* Cell Name:    o2na2hdv5
* View Name:    schematic
************************************************************************

.SUBCKT o2na2hdv5 a b c out inh_ground_gnd inh_power_vdd5
*.PININFO a:I b:I c:I out:O inh_ground_gnd:B inh_power_vdd5:B
MMN2 net7 b inh_ground_gnd inh_ground_gnd NE5 W=GT_PDW L=GT_PDL M=1.0 
+ AD=sx*(GT_PDW) AS=sx*(GT_PDW) PD=2*(sx+(GT_PDW)) PS=2*(sx+(GT_PDW)) 
+ NRD=lc/(GT_PDW) NRS=lc/(GT_PDW)
MMN1 net7 a inh_ground_gnd inh_ground_gnd NE5 W=GT_PDW L=GT_PDL M=1.0 
+ AD=sx*(GT_PDW) AS=sx*(GT_PDW) PD=2*(sx+(GT_PDW)) PS=2*(sx+(GT_PDW)) 
+ NRD=lc/(GT_PDW) NRS=lc/(GT_PDW)
MMN3 out c net7 inh_ground_gnd NE5 W=GT_PDW L=GT_PDL M=1.0 AD=sx*(GT_PDW) 
+ AS=sx*(GT_PDW) PD=2*(sx+(GT_PDW)) PS=2*(sx+(GT_PDW)) NRD=lc/(GT_PDW) 
+ NRS=lc/(GT_PDW)
MMP1 out a net17 inh_power_vdd5 PE5 W=GT_PUW L=GT_PUL M=1.0 AD=sx*(GT_PUW) 
+ AS=sx*(GT_PUW) PD=2*(sx+(GT_PUW)) PS=2*(sx+(GT_PUW)) NRD=lc/(GT_PUW) 
+ NRS=lc/(GT_PUW)
MMP3 out c inh_power_vdd5 inh_power_vdd5 PE5 W=0.67*GT_PUW L=GT_PUL M=1.0 
+ AD=sx*(0.67*GT_PUW) AS=sx*(0.67*GT_PUW) PD=2*(sx+(0.67*GT_PUW)) 
+ PS=2*(sx+(0.67*GT_PUW)) NRD=lc/(0.67*GT_PUW) NRS=lc/(0.67*GT_PUW)
MMP2 net17 b inh_power_vdd5 inh_power_vdd5 PE5 W=GT_PUW L=GT_PUL M=1.0 
+ AD=sx*(GT_PUW) AS=sx*(GT_PUW) PD=2*(sx+(GT_PUW)) PS=2*(sx+(GT_PUW)) 
+ NRD=lc/(GT_PUW) NRS=lc/(GT_PUW)
.ENDS

************************************************************************
* Library Name: D_CELLS_5V
* Cell Name:    EN2_5VX1
* View Name:    cmos_sch
************************************************************************

.SUBCKT EN2_5VX1 A B Q inh_ground_gnd inh_power_vdd5
*.PININFO A:I B:I Q:O inh_ground_gnd:B inh_power_vdd5:B
Xo2na2_1 B A net4 Q inh_ground_gnd inh_power_vdd5 / o2na2hdv5 GT_PUL=500.00n 
+ GT_PUW=1.41u lc=2.7e-07 sx=4.8e-07 GT_PDL=500.00n GT_PDW=420.00n
Xna2_1 A B net4 inh_ground_gnd inh_power_vdd5 / nand2hdv5 GT_PUL=500.00n 
+ GT_PUW=1.41u lc=2.7e-07 sx=4.8e-07 GT_PDL=500.00n GT_PDW=420.00n
.ENDS

************************************************************************
* Library Name: D_CELLS_5V
* Cell Name:    NA22_5VX1
* View Name:    cmos_sch
************************************************************************

.SUBCKT NA22_5VX1 A B C Q inh_ground_gnd inh_power_vdd5
*.PININFO A:I B:I C:I Q:O inh_ground_gnd:B inh_power_vdd5:B
Xna2_2 net05 C Q inh_ground_gnd inh_power_vdd5 / nand2hdv5 GT_PUL=500.00n 
+ GT_PUW=1.47u lc=2.7e-07 sx=4.8e-07 GT_PDL=500.00n GT_PDW=890.00n
Xna2_1 A B net05 inh_ground_gnd inh_power_vdd5 / nand2hdv5 GT_PUL=500.00n 
+ GT_PUW=1.47u lc=2.7e-07 sx=4.8e-07 GT_PDL=500.00n GT_PDW=890.00n
.ENDS

************************************************************************
* Library Name: D_CELLS_5V
* Cell Name:    DFRQ_5VX4
* View Name:    cmos_sch
************************************************************************

.SUBCKT DFRQ_5VX4 C D Q inh_ground_gnd inh_power_vdd5
*.PININFO C:I D:I Q:O inh_ground_gnd:B inh_power_vdd5:B
MM18 MQIB CIB net124 inh_ground_gnd NE5 W=700n L=500n M=1.0 AD=3.36e-13 
+ AS=3.36e-13 PD=2.36e-06 PS=2.36e-06 NRD=0.385714 NRS=0.385714
MM17 MQI MQIB inh_ground_gnd inh_ground_gnd NE5 W=890.0n L=500n M=1.0 
+ AD=4.272e-13 AS=4.272e-13 PD=2.74e-06 PS=2.74e-06 NRD=0.303371 NRS=0.303371
MM15 net124 D inh_ground_gnd inh_ground_gnd NE5 W=700n L=500n M=1.0 
+ AD=3.36e-13 AS=3.36e-13 PD=2.36e-06 PS=2.36e-06 NRD=0.385714 NRS=0.385714
MM46 SQIB CI net132 inh_ground_gnd NE5 W=720.0n L=500n M=1.0 AD=3.456e-13 
+ AS=3.456e-13 PD=2.4e-06 PS=2.4e-06 NRD=0.375 NRS=0.375
MM19 MQIB CI net120 inh_ground_gnd NE5 W=420.0n L=500n M=1.0 AD=2.016e-13 
+ AS=2.016e-13 PD=1.8e-06 PS=1.8e-06 NRD=0.642857 NRS=0.642857
MM51 SQIB CIB net140 inh_ground_gnd NE5 W=420.0n L=500n M=1.0 AD=2.016e-13 
+ AS=2.016e-13 PD=1.8e-06 PS=1.8e-06 NRD=0.642857 NRS=0.642857
MM50 net140 net142 inh_ground_gnd inh_ground_gnd NE5 W=420.0n L=500n M=1.0 
+ AD=2.016e-13 AS=2.016e-13 PD=1.8e-06 PS=1.8e-06 NRD=0.642857 NRS=0.642857
MM49 net142 SQIB inh_ground_gnd inh_ground_gnd NE5 W=890.0n L=500n M=1.0 
+ AD=4.272e-13 AS=4.272e-13 PD=2.74e-06 PS=2.74e-06 NRD=0.303371 NRS=0.303371
MM47 net132 MQI inh_ground_gnd inh_ground_gnd NE5 W=720.0n L=500n M=1.0 
+ AD=3.456e-13 AS=3.456e-13 PD=2.4e-06 PS=2.4e-06 NRD=0.375 NRS=0.375
MM61 net120 MQI inh_ground_gnd inh_ground_gnd NE5 W=420.0n L=500n M=1.0 
+ AD=2.016e-13 AS=2.016e-13 PD=1.8e-06 PS=1.8e-06 NRD=0.642857 NRS=0.642857
MM24 MQIB CI net162 inh_power_vdd5 PE5 W=1.1u L=500n M=1.0 AD=5.28e-13 
+ AS=5.28e-13 PD=3.16e-06 PS=3.16e-06 NRD=0.245455 NRS=0.245455
MM56 MQI MQIB inh_power_vdd5 inh_power_vdd5 PE5 W=1.41u L=500n M=1.0 
+ AD=6.768e-13 AS=6.768e-13 PD=3.78e-06 PS=3.78e-06 NRD=0.191489 NRS=0.191489
MM30 net170 MQI inh_power_vdd5 inh_power_vdd5 PE5 W=1.15u L=500n M=1.0 
+ AD=5.52e-13 AS=5.52e-13 PD=3.26e-06 PS=3.26e-06 NRD=0.234783 NRS=0.234783
MM23 net162 D inh_power_vdd5 inh_power_vdd5 PE5 W=1.1u L=500n M=1.0 
+ AD=5.28e-13 AS=5.28e-13 PD=3.16e-06 PS=3.16e-06 NRD=0.245455 NRS=0.245455
MM59 net142 SQIB inh_power_vdd5 inh_power_vdd5 PE5 W=1.41u L=500n M=1.0 
+ AD=6.768e-13 AS=6.768e-13 PD=3.78e-06 PS=3.78e-06 NRD=0.191489 NRS=0.191489
MM36 net166 net142 inh_power_vdd5 inh_power_vdd5 PE5 W=420.0n L=500n M=1.0 